Version 4
SHEET 1 880 680
WIRE 288 -144 112 -144
WIRE 448 -144 288 -144
WIRE 592 -144 448 -144
WIRE 448 -96 448 -144
WIRE 112 -48 112 -144
WIRE 288 -16 288 -144
WIRE 448 16 448 -32
WIRE 592 64 592 -144
WIRE 112 96 112 32
WIRE 16 144 -16 144
WIRE 48 144 16 144
WIRE 288 144 288 64
WIRE 224 192 112 192
WIRE 448 192 448 96
WIRE 384 240 288 240
WIRE 592 288 592 144
WIRE 592 288 448 288
WIRE 16 336 16 144
WIRE 304 336 16 336
WIRE 592 336 592 288
WIRE 592 336 384 336
WIRE 592 368 592 336
FLAG 592 368 0
FLAG -16 144 NearMainsWire
IOPIN -16 144 Out
SYMBOL npn 384 192 R0
SYMATTR InstName Q1
SYMATTR Value BC547B
SYMBOL npn 224 144 R0
SYMATTR InstName Q2
SYMATTR Value BC547B
SYMBOL npn 48 96 R0
SYMATTR InstName Q3
SYMATTR Value BC547B
SYMBOL LED 432 -96 R0
SYMATTR InstName D1
SYMBOL res 96 -64 R0
SYMATTR InstName R1
SYMATTR Value 1Meg
SYMBOL voltage 592 48 R0
WINDOW 123 0 0 Left 0
WINDOW 39 0 0 Left 0
SYMATTR InstName V1
SYMATTR Value 6
SYMBOL res 272 -32 R0
SYMATTR InstName R2
SYMATTR Value 100k
SYMBOL res 432 0 R0
SYMATTR InstName R3
SYMATTR Value 220
SYMBOL current 384 336 R90
WINDOW 0 -32 40 VBottom 2
WINDOW 3 32 40 VTop 2
WINDOW 123 0 0 Left 0
WINDOW 39 0 0 Left 0
SYMATTR InstName I1
SYMATTR Value 1nA
TEXT 304 -160 Left 2 !.tran 5ms
TEXT 264 -184 Left 2 ;MAINS DETECTOR
